Version 4.1
SHEET 1 940 680
WIRE 400 -704 -96 -704
WIRE 320 -672 272 -672
WIRE 400 -592 400 -704
WIRE 400 -592 320 -592
WIRE 704 -592 624 -592
WIRE 400 -496 -32 -496
WIRE 336 -448 0 -448
WIRE 32 -384 -64 -384
WIRE 272 -384 272 -672
WIRE 272 -384 256 -384
WIRE 288 -384 272 -384
WIRE -32 -320 -32 -496
WIRE 32 -320 -32 -320
WIRE 336 -320 336 -448
WIRE 336 -320 256 -320
WIRE 704 -288 704 -528
WIRE 784 -288 704 -288
WIRE -96 -272 -96 -704
WIRE -64 -272 -64 -384
WIRE -64 -272 -96 -272
WIRE 0 -272 0 -448
WIRE -64 -256 -64 -272
WIRE -48 -256 -64 -256
WIRE -32 -256 -48 -256
WIRE 32 -256 16 -256
WIRE 304 -256 256 -256
WIRE 304 -240 304 -256
WIRE 336 -240 304 -240
WIRE 400 -240 400 -496
WIRE 400 -240 336 -240
WIRE 624 -240 624 -592
WIRE 624 -240 608 -240
WIRE 768 -240 624 -240
WIRE 32 -224 32 -256
WIRE 32 -192 0 -192
WIRE 608 -192 608 -240
WIRE 16 -144 16 -256
WIRE 16 -144 -96 -144
WIRE 0 -112 0 -192
WIRE 288 -112 288 -384
WIRE 288 -112 0 -112
WIRE -96 -32 -96 -144
WIRE 560 -32 560 -112
WIRE 560 -32 -96 -32
WIRE 576 32 448 32
WIRE 640 32 576 32
WIRE 448 128 448 32
WIRE 640 144 640 112
WIRE 768 144 768 -240
WIRE 768 144 640 144
WIRE 576 208 576 32
WIRE 784 208 784 -288
WIRE 784 208 576 208
FLAG -48 -256 0
FLAG 608 -96 0
FLAG 448 208 0
SYMBOL Misc\\NE555 144 -288 R0
SYMATTR InstName U1
SYMBOL res -16 -288 R0
WINDOW 0 -85 32 Left 2
WINDOW 3 -80 53 Left 2
SYMATTR InstName R1
SYMATTR Value 1k
SYMBOL res 320 -336 R0
SYMATTR InstName R2
SYMATTR Value 6.8k
SYMBOL cap -48 -320 R0
SYMATTR InstName C1
SYMATTR Value 0.002µ
SYMATTR SpiceLine V=63 Irms=1m Rser=1.9 Lser=2.8p
SYMBOL voltage 320 -688 R0
WINDOW 123 0 0 Left 0
WINDOW 39 0 0 Left 0
SYMATTR InstName V1
SYMATTR Value 10
SYMBOL nmos 560 -192 R0
SYMATTR InstName M1
SYMATTR Value IRFZ44N
SYMBOL ind 624 16 R0
SYMATTR InstName L1
SYMATTR Value 1µH
SYMATTR SpiceLine Rser=1
SYMBOL voltage 448 112 R0
WINDOW 123 0 0 Left 0
WINDOW 39 0 0 Left 0
SYMATTR InstName V2
SYMATTR Value 10v
SYMBOL diode 688 -592 R0
SYMATTR InstName D1
SYMATTR Value 1N5819
TEXT -96 -104 Left 2 !.tran 2
